Version 4
SHEET 1 880 680
SYMBOL diode 16 80 R0
SYMATTR InstName D1
SYMBOL diode 112 96 R0
SYMATTR InstName D2
SYMBOL cap 224 64 R0
SYMATTR InstName C1
